12

C	-5.0151105705958825	2.92909815954489	-0.033869753414797296	
C	-4.1984121100263865	4.060551918757746	-0.01638947845573502	
C	-2.806120765550441	3.990291314408749	0.07646097302738082	
C	-4.380474169881749	1.649048276437557	0.019027844619202674	
C	-2.9958238190318673	1.5780329321929951	0.04032934686322187	
C	-2.21799386868424	2.745539798338548	-0.11459045394494097	
H	-6.073546853620382	3.125342142193676	-0.114628779520843	
H	-4.677903622005127	5.140033152007184	0.1013420950264908	
H	-5.077354111578871	0.7966244152436289	0.0565769694069545	
H	-2.4252550981940004	0.6799711974412906	0.20457808898005378	
H	-1.157818655887006	2.370825148742172	-0.05695022204400596	
H	-2.1394748715252456	5.055562949159515	0.15502396129624552	
