12

C	-4.999445207549332	2.932593232085103	0.0000000000000004609741168340397	
C	-4.210083019200582	4.091045489902001	0.00000000000000008071322088909296	
C	-2.81215284425014	3.9866639142889237	-0.00000000000000043686822282890033	
C	-4.390877169348636	1.6697594072289943	0.0000000000000006718962767732178	
C	-2.992946981994497	1.5653778346174476	0.00000000000000012674632393177915	
C	-2.2035848024662235	2.723830103375797	-0.000000000000000603070322539266	
H	-6.086185177350792	3.013738708519271	0.0000000000000003924158415391651	
H	-4.683178958706368	5.072762633295082	0.0000000000000002873752072311912	
H	-5.004521128345193	0.7691876836588084	0.00000000000000014595993762888192	
H	-2.5198510180653124	0.5836606844784717	-0.000000000000000549963740925954	
H	-1.1168448287423343	2.6426847077186575	-0.0000000000000004491986846544007	
H	-2.1985088639805848	4.88723560083145	-0.00000000000000012697995387884823	
