12

C	-4.9734365596241235	2.873115023354857	-0.028214789403121388	
C	-4.236183442946306	4.136353490710323	0.05991872214296513	
C	-2.77427362559932	3.97763698952391	-0.03518556193483676	
C	-4.418741195209697	1.669835265567611	0.010691873828081896	
C	-3.0328091502387924	1.585092369935819	0.021820352030460313	
C	-2.161910477540892	2.740847572040457	-0.033539454395181384	
H	-6.1172714757821645	3.020187878494703	-0.0839694352294003	
H	-4.747244697113579	5.18608587514699	-0.0037150222144350814	
H	-4.847211983006813	0.5335418574066434	-0.12513710942938971	
H	-2.731788923924145	0.5284753876493721	0.13238457492500308	
H	-1.1176594563040114	2.6166720534973016	0.07104972109465234	
H	-2.1877555468563585	4.922120337397202	0.06311520934432086	
