12

H          1.11562       -2.87318       -0.30639
C          0.56665       -1.96097       -0.56117
C         -0.82257       -1.94258       -0.49026
H         -1.36691       -2.84016       -0.17976
C         -1.52023       -0.78342       -0.81408
H         -2.61342       -0.76896       -0.75836
C         -0.82882        0.35738       -1.20876
H         -1.37783        1.26951       -1.46356
C          0.56037        0.33895       -1.27971
H          1.10444        1.23659       -1.59039
C          1.25807       -0.82019       -0.95589
H          2.35122       -0.83473       -1.01170
