12

C	-4.997272560236256	2.9525535765623316	-0.0888476730410873	
C	-4.217910839746573	4.115133366439095	0.04050954421863097	
C	-2.8157167536275822	3.9801993307410957	0.025701266677831024	
C	-4.383964867565208	1.6485193164973049	0.043405952491839386	
C	-2.9719098697907067	1.527647862652475	0.03236048159950014	
C	-2.2294997201856632	2.773000683592857	-0.07328190919854452	
H	-6.231546811397841	2.933892155048394	0.04112901808744335	
H	-4.578738502943865	5.159903561538232	0.013245522757065425	
H	-5.037448546451411	0.7829788748768017	0.07279130241866232	
H	-2.4484878066951787	0.5459982767060613	-0.015288991406624647	
H	-1.0835826558393868	2.548104838720075	0.019940202916724943	
H	-2.1436735008742867	4.6673139233508545	0.1083199349304385	
