12

C	-4.976519656262524	2.920818544789066	-0.01035794275780289	
C	-4.211278727133041	4.099203616634034	0.006558950062041122	
C	-2.8081265272262717	4.005173913896041	-0.03507904143715159	
C	-4.440848937849579	1.641018641171346	-0.010557500318588594	
C	-2.963840290027625	1.5946817318049118	-0.02329660574827693	
C	-2.2221352233089355	2.6898479928415253	0.05918169520026841	
H	-6.008755438866771	2.8527767793576704	0.08212106432302227	
H	-4.749819095182078	5.26204396684633	0.10025807821606532	
H	-5.036857041761538	0.7515235775393293	0.13942356241264703	
H	-2.5635471855586878	0.6811576613073352	-0.08006669493543282	
H	-1.0997187424323398	2.72607425555898	-0.0036060256357904044	
H	-1.987626633145041	4.916445714900406	-0.07666171265222424	
