12

C	-4.926960529313325	2.9142758155704866	-0.041929734341890075	
C	-4.233100728149395	4.1093781666889555	-0.023111180515342694	
C	-2.80550645410542	3.96956306965162	0.08650411558561676	
C	-4.399784554786818	1.6532038287242528	0.06103934878016944	
C	-3.0352891337690413	1.5440778610729395	-0.04496899927915038	
C	-2.2027796442084093	2.784590925306825	-0.06129070031223668	
H	-6.120796376672364	2.976861877528456	-0.03180322603318071	
H	-4.618664402358693	5.153233475480129	-0.15262602849965834	
H	-4.996112752492848	0.675960457059294	0.23213904962635964	
H	-2.654132918456824	0.6124210650539409	0.07596809160693029	
H	-1.1001202768853506	2.563998320766437	0.015943532660515933	
H	-2.1868153087770525	4.917446948393641	0.14347083043184747	
