12

C	-5.003980362363574	2.9548549029068654	0.034194355558729496	
C	-4.206370667800028	4.060973435964114	-0.012920656436074093	
C	-2.8429387489951043	3.9235010737703164	-0.009862133842067952	
C	-4.411018509468172	1.7048402676287915	-0.06018680484184105	
C	-2.9770156919608564	1.6170268591931762	-0.0065278198512766636	
C	-2.1755935345836646	2.720118806276829	0.015319078241745084	
H	-6.0387186693825186	2.804228581002666	0.07110469947668231	
H	-4.589832158756896	5.096027658696279	0.06229971455336893	
H	-5.019393439413024	0.8803021775147778	0.10129685579761545	
H	-2.4299104195118355	0.7872932411130255	0.2801941937093695	
H	-1.1049419007918624	2.6266546828479336	-0.06310442701927954	
H	-2.33302033777734	4.631230078244507	0.024661531761921866	
